ApiEletroposto/Content/Rede/Rede_DMS_Cabos_VLN_Node.Txt

LINE-GROUND and LINE-LINE VOLTAGES BY BUS & NODE

Bus  Node    VLN (kV)   Angle      pu     Base kV    Node-Node   VLL (kV)  Angle      pu

1 .. 1       50.808 /_    0.0         1    88.000        1-2     88.002 /_   30.0         1
   - 2       50.808 /_ -120.0         1    88.000        2-3     88.002 /_  -90.0         1
   - 3       50.808 /_  120.0         1    88.000        3-1     88.002 /_  150.0         1
6 .. 1       7.9679 /_  -30.0    1.0001    13.800        1-2     13.801 /_    0.0    1.0001
   - 2       7.9679 /_ -150.0    1.0001    13.800        2-3     13.801 /_ -120.0    1.0001
   - 3       7.9679 /_   90.0    1.0001    13.800        3-1     13.801 /_  120.0    1.0001
1546 1       7.9679 /_  -30.0    1.0001    13.800        1-2     13.801 /_    0.0    1.0001
   - 2       7.9679 /_ -150.0    1.0001    13.800        2-3     13.801 /_ -120.0    1.0001
   - 3       7.9679 /_   90.0    1.0001    13.800        3-1     13.801 /_  120.0    1.0001
255  1       7.9679 /_  -30.0    1.0001    13.800        1-2     13.801 /_    0.0    1.0001
   - 2       7.9679 /_ -150.0    1.0001    13.800        2-3     13.801 /_ -120.0    1.0001
   - 3       7.9679 /_   90.0    1.0001    13.800        3-1     13.801 /_  120.0    1.0001
254  1       7.9679 /_  -30.0    1.0001    13.800        1-2     13.801 /_    0.0    1.0001
   - 2       7.9679 /_ -150.0    1.0001    13.800        2-3     13.801 /_ -120.0    1.0001
   - 3       7.9679 /_   90.0    1.0001    13.800        3-1     13.801 /_  120.0    1.0001
253  1       7.9679 /_  -30.0    1.0001    13.800        1-2     13.801 /_    0.0    1.0001
   - 2       7.9679 /_ -150.0    1.0001    13.800        2-3     13.801 /_ -120.0    1.0001
   - 3       7.9679 /_   90.0    1.0001    13.800        3-1     13.801 /_  120.0    1.0001
2048 1        7.968 /_  -30.0    1.0001    13.800        1-2     13.801 /_    0.0    1.0001
   - 2        7.968 /_ -150.0    1.0001    13.800        2-3     13.801 /_ -120.0    1.0001
   - 3        7.968 /_   90.0    1.0001    13.800        3-1     13.801 /_  120.0    1.0001
252  1       7.9679 /_  -30.0    1.0001    13.800        1-2     13.801 /_    0.0    1.0001
   - 2       7.9679 /_ -150.0    1.0001    13.800        2-3     13.801 /_ -120.0    1.0001
   - 3       7.9679 /_   90.0    1.0001    13.800        3-1     13.801 /_  120.0    1.0001
2224 1       7.9681 /_  -30.0    1.0001    13.800        1-2     13.801 /_    0.0    1.0001
   - 2       7.9681 /_ -150.0    1.0001    13.800        2-3     13.801 /_ -120.0    1.0001
   - 3       7.9681 /_   90.0    1.0001    13.800        3-1     13.801 /_  120.0    1.0001
2214 1       7.9682 /_  -30.0    1.0001    13.800        1-2     13.801 /_    0.0    1.0001
   - 2       7.9682 /_ -150.0    1.0001    13.800        2-3     13.801 /_ -120.0    1.0001
   - 3       7.9683 /_   90.0    1.0001    13.800        3-1     13.801 /_  120.0    1.0001
2213 1       7.9683 /_  -30.0    1.0001    13.800        1-2     13.801 /_    0.0    1.0001
   - 2       7.9682 /_ -150.0    1.0001    13.800        2-3     13.801 /_ -120.0    1.0001
   - 3       7.9683 /_   90.0    1.0001    13.800        3-1     13.801 /_  120.0    1.0001
2212 1       7.9683 /_  -30.0    1.0001    13.800        1-2     13.801 /_    0.0    1.0001
   - 2       7.9683 /_ -150.0    1.0001    13.800        2-3     13.801 /_ -120.0    1.0001
   - 3       7.9683 /_   90.0    1.0001    13.800        3-1     13.801 /_  120.0    1.0001
1544 1       7.9683 /_  -30.0    1.0001    13.800        1-2     13.802 /_    0.0    1.0001
   - 2       7.9683 /_ -150.0    1.0001    13.800        2-3     13.802 /_ -120.0    1.0001
   - 3       7.9684 /_   90.0    1.0001    13.800        3-1     13.802 /_  120.0    1.0001
1545 1       7.9684 /_  -30.0    1.0001    13.800        1-2     13.802 /_    0.0    1.0001
   - 2       7.9684 /_ -150.0    1.0001    13.800        2-3     13.802 /_ -120.0    1.0001
   - 3       7.9684 /_   90.0    1.0001    13.800        3-1     13.802 /_  120.0    1.0001
1543 1       7.9684 /_  -30.0    1.0001    13.800        1-2     13.802 /_    0.0    1.0001
   - 2       7.9684 /_ -150.0    1.0001    13.800        2-3     13.802 /_ -120.0    1.0001
   - 3       7.9684 /_   90.0    1.0001    13.800        3-1     13.802 /_  120.0    1.0001
267  1       7.9684 /_  -30.0    1.0001    13.800        1-2     13.802 /_    0.0    1.0001
   - 2       7.9684 /_ -150.0    1.0001    13.800        2-3     13.802 /_ -120.0    1.0001
   - 3       7.9684 /_   90.0    1.0001    13.800        3-1     13.802 /_  120.0    1.0001
1541 1       7.9684 /_  -30.0    1.0001    13.800        1-2     13.802 /_    0.0    1.0001
   - 2       7.9684 /_ -150.0    1.0001    13.800        2-3     13.802 /_ -120.0    1.0001
   - 3       7.9684 /_   90.0    1.0001    13.800        3-1     13.802 /_  120.0    1.0001
846  1       7.9685 /_  -30.0    1.0001    13.800        1-2     13.802 /_    0.0    1.0001
   - 2       7.9684 /_ -150.0    1.0001    13.800        2-3     13.802 /_ -120.0    1.0001
   - 3       7.9685 /_   90.0    1.0001    13.800        3-1     13.802 /_  120.0    1.0001
844  1       7.9685 /_  -30.0    1.0001    13.800        1-2     13.802 /_    0.0    1.0001
   - 2       7.9685 /_ -150.0    1.0001    13.800        2-3     13.802 /_ -120.0    1.0001
   - 3       7.9685 /_   90.0    1.0001    13.800        3-1     13.802 /_  120.0    1.0001
   - 4            0 /_    0.0         0    13.800
845  1       7.9686 /_  -30.0    1.0001    13.800        1-2     13.802 /_    0.0    1.0001
   - 2       7.9685 /_ -150.0    1.0001    13.800        2-3     13.802 /_ -120.0    1.0001
   - 3       7.9686 /_   90.0    1.0001    13.800        3-1     13.802 /_  120.0    1.0001
2221 1       7.9686 /_  -30.0    1.0001    13.800        1-2     13.802 /_    0.0    1.0001
   - 2       7.9685 /_ -150.0    1.0001    13.800        2-3     13.802 /_ -120.0    1.0001
   - 3       7.9686 /_   90.0    1.0001    13.800        3-1     13.802 /_  120.0    1.0001
368  1       7.9686 /_  -30.0    1.0001    13.800        1-2     13.802 /_    0.0    1.0001
   - 2       7.9685 /_ -150.0    1.0001    13.800        2-3     13.802 /_ -120.0    1.0001
   - 3       7.9686 /_   90.0    1.0001    13.800        3-1     13.802 /_  120.0    1.0001
2220 1       7.9686 /_  -30.0    1.0001    13.800        1-2     13.802 /_    0.0    1.0001
   - 2       7.9685 /_ -150.0    1.0001    13.800        2-3     13.802 /_ -120.0    1.0001
   - 3       7.9686 /_   90.0    1.0001    13.800        3-1     13.802 /_  120.0    1.0001
369  1       7.9686 /_  -30.0    1.0001    13.800        1-2     13.802 /_    0.0    1.0001
   - 2       7.9685 /_ -150.0    1.0001    13.800        2-3     13.802 /_ -120.0    1.0001
   - 3       7.9686 /_   90.0    1.0001    13.800        3-1     13.802 /_  120.0    1.0001
1540 1       7.9686 /_  -30.0    1.0001    13.800        1-2     13.802 /_    0.0    1.0001
   - 2       7.9685 /_ -150.0    1.0001    13.800        2-3     13.802 /_ -120.0    1.0001
   - 3       7.9686 /_   90.0    1.0001    13.800        3-1     13.802 /_  120.0    1.0001
2218 1       7.9686 /_  -30.0    1.0001    13.800        1-2     13.802 /_    0.0    1.0001
   - 2       7.9685 /_ -150.0    1.0001    13.800        2-3     13.802 /_ -120.0    1.0001
   - 3       7.9686 /_   90.0    1.0001    13.800        3-1     13.802 /_  120.0    1.0001
   - 4            0 /_    0.0         0    13.800
2217 1       7.9686 /_  -30.0    1.0002    13.800        1-2     13.802 /_    0.0    1.0001
   - 2       7.9686 /_ -150.0    1.0001    13.800        2-3     13.802 /_ -120.0    1.0001
   - 3       7.9687 /_   90.0    1.0002    13.800        3-1     13.802 /_  120.0    1.0002
   - 4            0 /_    0.0         0    13.800
2051 1       7.9687 /_  -30.0    1.0002    13.800        1-2     13.802 /_    0.0    1.0001
   - 2       7.9686 /_ -150.0    1.0001    13.800        2-3     13.802 /_ -120.0    1.0002
   - 3       7.9687 /_   90.0    1.0002    13.800        3-1     13.802 /_  120.0    1.0002
2049 1       7.9687 /_  -30.0    1.0002    13.800        1-2     13.802 /_    0.0    1.0002
   - 2       7.9686 /_ -150.0    1.0001    13.800        2-3     13.802 /_ -120.0    1.0002
   - 3       7.9687 /_   90.0    1.0002    13.800        3-1     13.802 /_  120.0    1.0002
2211 1       7.9687 /_  -30.0    1.0002    13.800        1-2     13.802 /_    0.0    1.0002
   - 2       7.9686 /_ -150.0    1.0002    13.800        2-3     13.802 /_ -120.0    1.0002
   - 3       7.9687 /_   90.0    1.0002    13.800        3-1     13.802 /_  120.0    1.0002
   - 4            0 /_    0.0         0    13.800
2050 1       7.9687 /_  -30.0    1.0002    13.800        1-2     13.802 /_    0.0    1.0002
   - 2       7.9686 /_ -150.0    1.0001    13.800        2-3     13.802 /_ -120.0    1.0002
   - 3       7.9687 /_   90.0    1.0002    13.800        3-1     13.802 /_  120.0    1.0002
2210 1       7.9687 /_  -30.0    1.0002    13.800        1-2     13.802 /_    0.0    1.0002
   - 2       7.9686 /_ -150.0    1.0002    13.800        2-3     13.802 /_ -120.0    1.0002
   - 3       7.9687 /_   90.0    1.0002    13.800        3-1     13.802 /_  120.0    1.0002
2209 1       7.9687 /_  -30.0    1.0002    13.800        1-2     13.802 /_    0.0    1.0002
   - 2       7.9686 /_ -150.0    1.0002    13.800        2-3     13.802 /_ -120.0    1.0002
   - 3       7.9687 /_   90.0    1.0002    13.800        3-1     13.802 /_  120.0    1.0002
2207 1       7.9687 /_  -30.0    1.0002    13.800        1-2     13.802 /_    0.0    1.0002
   - 2       7.9687 /_ -150.0    1.0002    13.800        2-3     13.802 /_ -120.0    1.0002
   - 3       7.9687 /_   90.0    1.0002    13.800        3-1     13.802 /_  120.0    1.0002
   - 4            0 /_    0.0         0    13.800
2208 1       7.9687 /_  -30.0    1.0002    13.800        1-2     13.802 /_    0.0    1.0002
   - 2       7.9687 /_ -150.0    1.0002    13.800        2-3     13.802 /_ -120.0    1.0002
   - 3       7.9687 /_   90.0    1.0002    13.800        3-1     13.802 /_  120.0    1.0002
1948 1       7.9687 /_  -30.0    1.0002    13.800        1-2     13.802 /_    0.0    1.0002
   - 2       7.9687 /_ -150.0    1.0002    13.800        2-3     13.802 /_ -120.0    1.0002
   - 3       7.9688 /_   90.0    1.0002    13.800        3-1     13.802 /_  120.0    1.0002
1949 1       7.9687 /_  -30.0    1.0002    13.800        1-2     13.802 /_    0.0    1.0002
   - 2       7.9687 /_ -150.0    1.0002    13.800        2-3     13.802 /_ -120.0    1.0002
   - 3       7.9688 /_   90.0    1.0002    13.800        3-1     13.802 /_  120.0    1.0002
2216 1       7.9687 /_  -30.0    1.0002    13.800        1-2     13.802 /_    0.0    1.0002
   - 2       7.9687 /_ -150.0    1.0002    13.800        2-3     13.802 /_ -120.0    1.0002
   - 3       7.9688 /_   90.0    1.0002    13.800        3-1     13.802 /_  120.0    1.0002
2215 1       7.9688 /_  -30.0    1.0002    13.800        1-2     13.802 /_    0.0    1.0002
   - 2       7.9687 /_ -150.0    1.0002    13.800        2-3     13.802 /_ -120.0    1.0002
   - 3       7.9688 /_   90.0    1.0002    13.800        3-1     13.802 /_  120.0    1.0002
   - 4            0 /_    0.0         0    13.800
1950 1       7.9688 /_  -30.0    1.0002    13.800        1-2     13.802 /_    0.0    1.0002
   - 2       7.9687 /_ -150.0    1.0002    13.800        2-3     13.802 /_ -120.0    1.0002
   - 3       7.9688 /_   90.0    1.0002    13.800        3-1     13.802 /_  120.0    1.0002
1951 1       7.9688 /_  -30.0    1.0002    13.800        1-2     13.802 /_    0.0    1.0002
   - 2       7.9688 /_ -150.0    1.0002    13.800        2-3     13.802 /_ -120.0    1.0002
   - 3       7.9688 /_   90.0    1.0002    13.800        3-1     13.802 /_  120.0    1.0002
2222 1       7.9688 /_  -30.0    1.0002    13.800        1-2     13.802 /_    0.0    1.0002
   - 2       7.9688 /_ -150.0    1.0002    13.800        2-3     13.802 /_ -120.0    1.0002
   - 3       7.9689 /_   90.0    1.0002    13.800        3-1     13.802 /_  120.0    1.0002
1756 1       7.9688 /_  -30.0    1.0002    13.800        1-2     13.802 /_    0.0    1.0002
   - 2       7.9688 /_ -150.0    1.0002    13.800        2-3     13.802 /_ -120.0    1.0002
   - 3       7.9689 /_   90.0    1.0002    13.800        3-1     13.802 /_  120.0    1.0002
   - 4            0 /_    0.0         0    13.800
1752 1       7.9689 /_  -30.0    1.0002    13.800        1-2     13.802 /_    0.0    1.0002
   - 2       7.9688 /_ -150.0    1.0002    13.800        2-3     13.802 /_ -120.0    1.0002
   - 3       7.9689 /_   90.0    1.0002    13.800        3-1     13.802 /_  120.0    1.0002
1803 1       7.9689 /_  -30.0    1.0002    13.800        1-2     13.802 /_    0.0    1.0002
   - 2       7.9688 /_ -150.0    1.0002    13.800        2-3     13.802 /_ -120.0    1.0002
   - 3       7.9689 /_   90.0    1.0002    13.800        3-1     13.802 /_  120.0    1.0002
1753 1       7.9689 /_  -30.0    1.0002    13.800        1-2     13.802 /_    0.0    1.0002
   - 2       7.9688 /_ -150.0    1.0002    13.800        2-3     13.802 /_ -120.0    1.0002
   - 3       7.9689 /_   90.0    1.0002    13.800        3-1     13.802 /_  120.0    1.0002
1751 1       7.9689 /_  -30.0    1.0002    13.800        1-2     13.802 /_    0.0    1.0002
   - 2       7.9688 /_ -150.0    1.0002    13.800        2-3     13.802 /_ -120.0    1.0002
   - 3       7.9689 /_   90.0    1.0002    13.800        3-1     13.802 /_  120.0    1.0002
1749 1       7.9689 /_  -30.0    1.0002    13.800        1-2     13.802 /_    0.0    1.0002
   - 2       7.9688 /_ -150.0    1.0002    13.800        2-3     13.803 /_ -120.0    1.0002
   - 3       7.9689 /_   90.0    1.0002    13.800        3-1     13.803 /_  120.0    1.0002
1755 1       7.9689 /_  -30.0    1.0002    13.800        1-2     13.802 /_    0.0    1.0002
   - 2       7.9688 /_ -150.0    1.0002    13.800        2-3     13.802 /_ -120.0    1.0002
   - 3       7.9689 /_   90.0    1.0002    13.800        3-1     13.802 /_  120.0    1.0002
   - 4            0 /_    0.0         0    13.800
1750 1       7.9689 /_  -30.0    1.0002    13.800        1-2     13.802 /_    0.0    1.0002
   - 2       7.9688 /_ -150.0    1.0002    13.800        2-3     13.803 /_ -120.0    1.0002
   - 3       7.9689 /_   90.0    1.0002    13.800        3-1     13.803 /_  120.0    1.0002
1748 1       7.9689 /_  -30.0    1.0002    13.800        1-2     13.802 /_    0.0    1.0002
   - 2       7.9688 /_ -150.0    1.0002    13.800        2-3     13.803 /_ -120.0    1.0002
   - 3       7.9689 /_   90.0    1.0002    13.800        3-1     13.803 /_  120.0    1.0002
1747 1       7.9689 /_  -30.0    1.0002    13.800        1-2     13.802 /_    0.0    1.0002
   - 2       7.9688 /_ -150.0    1.0002    13.800        2-3     13.803 /_ -120.0    1.0002
   - 3       7.9689 /_   90.0    1.0002    13.800        3-1     13.803 /_  120.0    1.0002
   - 4            0 /_    0.0         0    13.800
680  1        7.969 /_  -30.0    1.0002    13.800        1-2     13.803 /_    0.0    1.0002
   - 2       7.9689 /_ -150.0    1.0002    13.800        2-3     13.803 /_ -120.0    1.0002
   - 3        7.969 /_   90.0    1.0002    13.800        3-1     13.803 /_  120.0    1.0002
678  1        7.969 /_  -30.0    1.0002    13.800        1-2     13.803 /_    0.0    1.0002
   - 2       7.9689 /_ -150.0    1.0002    13.800        2-3     13.803 /_ -120.0    1.0002
   - 3        7.969 /_   90.0    1.0002    13.800        3-1     13.803 /_  120.0    1.0002
   - 4            0 /_    0.0         0    13.800
679  1        7.969 /_  -30.0    1.0002    13.800        1-2     13.803 /_    0.0    1.0002
   - 2       7.9689 /_ -150.0    1.0002    13.800        2-3     13.803 /_ -120.0    1.0002
   - 3        7.969 /_   90.0    1.0002    13.800        3-1     13.803 /_  120.0    1.0002
1514 1        7.969 /_  -30.0    1.0002    13.800        1-2     13.803 /_    0.0    1.0002
   - 2       7.9689 /_ -150.0    1.0002    13.800        2-3     13.803 /_ -120.0    1.0002
   - 3        7.969 /_   90.0    1.0002    13.800        3-1     13.803 /_  120.0    1.0002
676  1        7.969 /_  -30.0    1.0002    13.800        1-2     13.803 /_    0.0    1.0002
   - 2        7.969 /_ -150.0    1.0002    13.800        2-3     13.803 /_ -120.0    1.0002
   - 3       7.9691 /_   90.0    1.0002    13.800        3-1     13.803 /_  120.0    1.0002
677  1        7.969 /_  -30.0    1.0002    13.800        1-2     13.803 /_    0.0    1.0002
   - 2        7.969 /_ -150.0    1.0002    13.800        2-3     13.803 /_ -120.0    1.0002
   - 3       7.9691 /_   90.0    1.0002    13.800        3-1     13.803 /_  120.0    1.0002
1065 1        7.969 /_  -30.0    1.0002    13.800        1-2     13.803 /_    0.0    1.0002
   - 2        7.969 /_ -150.0    1.0002    13.800        2-3     13.803 /_ -120.0    1.0002
   - 3       7.9691 /_   90.0    1.0002    13.800        3-1     13.803 /_  120.0    1.0002
   - 4            0 /_    0.0         0    13.800
1064 1        7.969 /_  -30.0    1.0002    13.800        1-2     13.803 /_    0.0    1.0002
   - 2        7.969 /_ -150.0    1.0002    13.800        2-3     13.803 /_ -120.0    1.0002
   - 3       7.9691 /_   90.0    1.0002    13.800        3-1     13.803 /_  120.0    1.0002
1063 1       7.9691 /_  -30.0    1.0002    13.800        1-2     13.803 /_    0.0    1.0002
   - 2        7.969 /_ -150.0    1.0002    13.800        2-3     13.803 /_ -120.0    1.0002
   - 3       7.9691 /_   90.0    1.0002    13.800        3-1     13.803 /_  120.0    1.0002
1802 1       7.9691 /_  -30.0    1.0002    13.800        1-2     13.803 /_    0.0    1.0002
   - 2        7.969 /_ -150.0    1.0002    13.800        2-3     13.803 /_ -120.0    1.0002
   - 3       7.9691 /_   90.0    1.0002    13.800        3-1     13.803 /_  120.0    1.0002
1611 1       7.9691 /_  -30.0    1.0002    13.800        1-2     13.803 /_    0.0    1.0002
   - 2        7.969 /_ -150.0    1.0002    13.800        2-3     13.803 /_ -120.0    1.0002
   - 3       7.9691 /_   90.0    1.0002    13.800        3-1     13.803 /_  120.0    1.0002
...
